/*--------------------------------*- C++ -*----------------------------------*\
  =========                 |
  \\      /  F ield         | OpenFOAM: The Open Source CFD Toolbox
   \\    /   O peration     | Website:  https://openfoam.org
    \\  /    A nd           | Version:  9
     \\/     M anipulation  |
\*---------------------------------------------------------------------------*/
FoamFile
{
    format      ascii;
    class       volScalarField;
    object      k;
}
// * * * * * * * * * * * * * * * * * * * * * * * * * * * * * * * * * * * * * //
#include        "$FOAM_CASE/initialConditions"
//turbulentKE	0.271;

dimensions      [0 2 -2 0 0 0 0];

internalField   uniform $turbulentKE;

boundaryField
{

    
    Inlet
    {
        type            inletOutlet;
        inletValue      $internalField;
        value           $internalField;
    }

    Outlet
    {
        type            inletOutlet;
        inletValue      $internalField;
        value           $internalField; // Now trying here, this comment same as Inlet will try if this does not work
    }

    Aerofoil
    {
        type            fixedValue;
        value           $internalField;
    }
    
    FrontandBack
    {
        type            empty;
    }

    #includeEtc "caseDicts/setConstraintTypes"
}


// ************************************************************************* //
