/*--------------------------------*- C++ -*----------------------------------*\
  =========                 |
  \\      /  F ield         | OpenFOAM: The Open Source CFD Toolbox
   \\    /   O peration     | Website:  https://openfoam.org
    \\  /    A nd           | Version:  9
     \\/     M anipulation  |
\*---------------------------------------------------------------------------*/
FoamFile
{
    format      ascii;
    class       volScalarField;
    object      nut;
}
// * * * * * * * * * * * * * * * * * * * * * * * * * * * * * * * * * * * * * //
#include        "$FOAM_CASE/initialConditions"
dimensions      [0 2 -1 0 0 0 0];

internalField   uniform $turbulentVis;

boundaryField
{

    
    Inlet
    {
        type            calculated;
        value           $internalField;
    }

    Outlet
    {
        type            calculated;
        value           $internalField;
    }
    
    Aerofoil
    {
        type            nutkWallFunction;
        value           $internalField;
    }

    FrontandBack
    {
        type            empty;
    }
    
}

// ************************************************************************* //
