/*--------------------------------*- C++ -*----------------------------------*\
  =========                 |
  \\      /  F ield         | OpenFOAM: The Open Source CFD Toolbox
   \\    /   O peration     | Website:  https://openfoam.org
    \\  /    A nd           | Version:  9
     \\/     M anipulation  |
\*---------------------------------------------------------------------------*/
FoamFile
{
    format      ascii;
    class       volScalarField;
    object      omega;
}
// * * * * * * * * * * * * * * * * * * * * * * * * * * * * * * * * * * * * * //
#include        "$FOAM_CASE/initialConditions"
//turbulentOmega	8.568;

dimensions      [0 0 -1 0 0 0 0];

internalField   uniform $turbulentOmega;

boundaryField
{
   
    Inlet
    {
        type            inletOutlet;
        inletValue      $internalField;
        value           $internalField;
    }
    
    Outlet
    {
        type            inletOutlet;
        inletValue      $internalField;
        value           $internalField;
    }
    
    Aerofoil
    {
        type            fixedValue;
        value           $internalField;
    }
    
    FrontandBack
    {
        type            empty;
    }
    
    
     #includeEtc "caseDicts/setConstraintTypes"

}

// ************************************************************************* //
