/*--------------------------------*- C++ -*----------------------------------*\
  =========                 |
  \\      /  F ield         | OpenFOAM: The Open Source CFD Toolbox
   \\    /   O peration     | Website:  https://openfoam.org
    \\  /    A nd           | Version:  9
     \\/     M anipulation  |
\*---------------------------------------------------------------------------*/
FoamFile
{
    format      ascii;
    class       volScalarField;
    object      p;
}
// * * * * * * * * * * * * * * * * * * * * * * * * * * * * * * * * * * * * * //

pOut            0;

dimensions      [0 2 -2 0 0 0 0];

internalField   uniform $pOut;

boundaryField
{
    freestream
    {
        type            freestreamPressure;
        freestreamValue uniform $pOut;
    }

    wall
    {
        type            zeroGradient;
    }
    front
    {
        type        cyclic; 
    }

    back
    {
        type        cyclic; 
    }

    #includeEtc "caseDicts/setConstraintTypes"
}

// ************************************************************************* //
