/*--------------------------------*- C++ -*----------------------------------*\
  =========                 |
  \\      /  F ield         | OpenFOAM: The Open Source CFD Toolbox
   \\    /   O peration     | Website:  https://openfoam.org
    \\  /    A nd           | Version:  9
     \\/     M anipulation  |
\*---------------------------------------------------------------------------*/
FoamFile
{
    format      ascii;
    class       dictionary;
    object      fvSolution;
}
// * * * * * * * * * * * * * * * * * * * * * * * * * * * * * * * * * * * * * //

solvers
{
    p
    {
        solver          GAMG;
        tolerance       1e-06;
        relTol          0.1;
        smoother        DICGaussSeidel; //DICGaussSeidel //GaussSeidel // DIC;
        nPreSweeps      0;
        nPostSweeps     2;
        cacheAgglomeration on;
        agglomerator    faceAreaPair;
        nCellsInCoarsestLevel 10;
        mergeLevels     1;
    }

    pFinal
    {       
        $p;
        smoother	DICGaussSeidel;
        tolerance       1e-05;
        relTol          0;
    }

    "(U|k|epsilon|omega|nuTilda)"
    {
        solver          smoothSolver; //PBiCG //PBiCGStab //smoothSolver
        smoother        GaussSeidel; //DILU //GaussSeidel //symGaussSeidel
        tolerance       1e-05;
        relTol          0.1;
        minIter         1;
    }
}

SIMPLE
{
    nCorrectors     3;
    nNonOrthogonalCorrectors 4;
    pRefCell        0;
    pRefValue       0;
}

PISO
{
    nCorrectors     2;
    nNonOrthogonalCorrectors 2;
    pRefCell        0;
    pRefValue       0;
}

PIMPLE
{
    correctPhi				yes;
    nNonOrthogonalCorrectors		1;
    nCorrectors				2;
    nOuterCorrectors			25; 
    turbOnFinalIterOnly                 false;//false

    residualControl
    {
        /*
        U
        {
			tolerance	5e-5;
			relTol		1e-3;
        }
        p
        {
			tolerance	5e-5;
			relTol		1e-3;
        }
		"(k|epsilon|omega)"
        {
			tolerance	5e-5;
			relTol		1e-3;
        }
        */
        U   5e-05;
        p   5e-04;
        k|epsilon|omega 5e-04;
     }

}

relaxationFactors
{
    fields
    {
        p               0.3;
    }

    equations
    {
        U               0.7;
        "(k|omega)"     0.3;
    }
}



// ************************************************************************* //
